this is new 
new line added my me
new line.....
